<nodes>
    <node id="1" x="0.0" y="100.0" />
    <!-- this is the junction -->
    <node id="2" x="100.0" y="100.0" type="traffic_light" />
    <node id="3" x="200.0" y="100.0" />

    <node id="4" x="100.0" y="0.0" />
    <node id="5" x="100.0" y="+200.0" />
</nodes>

<!-- Original smallerl network -->
<!-- <nodes>
    <node id="1" x="0.0" y="50.0" /> -->
    <!-- this is the junction -->
    <!-- <node id="2" x="50.0" y="50.0" type="traffic_light" />
    <node id="3" x="+100.0" y="50.0" />

    <node id="4" x="50.0" y="0.0" />
    <node id="5" x="50.0" y="+100.0" />
</nodes> -->