<?xml version="1.0" encoding="UTF-8"?>

<!-- generated on 10/13/17 11:19:57 by SUMO netconvert Version 0.30.0
<?xml version="1.0" encoding="UTF-8"?>

<configuration xmlns:xsi="http://www.w3.org/2001/XMLSchema-instance" xsi:noNamespaceSchemaLocation="http://sumo.dlr.de/xsd/netconvertConfiguration.xsd">

    <input>
        <node-files value="hello.nod.xml"/>
        <edge-files value="hello.edg.xml"/>
    </input>

    <output>
        <output-file value="hello.net.xml"/>
    </output>

</configuration>
-->

<net version="0.27" xmlns:xsi="http://www.w3.org/2001/XMLSchema-instance" xsi:noNamespaceSchemaLocation="http://sumo.dlr.de/xsd/net_file.xsd">

    <location netOffset="0.00,0.00" convBoundary="0.00,0.00,200.00,200.00" origBoundary="0.00,0.00,200.00,200.00" projParameter="!"/>

    <edge id=":1_0" function="internal">
        <lane id=":1_0_0" index="0" speed="13.90" length="4.82" shape="0.00,101.65 -1.24,100.82 -1.65,100.00 -1.24,99.17 0.00,98.35"/>
    </edge>
    <edge id=":2_0" function="internal">
        <lane id=":2_0_0" index="0" speed="13.90" length="5.00" shape="98.35,104.75 98.16,103.39 97.57,102.43 96.61,101.84 95.25,101.65"/>
    </edge>
    <edge id=":2_1" function="internal">
        <lane id=":2_1_0" index="0" speed="13.90" length="9.50" shape="98.35,104.75 98.35,95.25"/>
    </edge>
    <edge id=":2_2" function="internal">
        <lane id=":2_2_0" index="0" speed="13.90" length="5.28" shape="98.35,104.75 98.75,101.95 99.95,99.95 100.05,99.89"/>
    </edge>
    <edge id=":2_3" function="internal">
        <lane id=":2_3_0" index="0" speed="13.90" length="2.41" shape="98.35,104.75 99.18,103.51 100.00,103.10"/>
    </edge>
    <edge id=":2_16" function="internal">
        <lane id=":2_16_0" index="0" speed="13.90" length="5.04" shape="100.05,99.89 101.95,98.75 104.75,98.35"/>
    </edge>
    <edge id=":2_17" function="internal">
        <lane id=":2_17_0" index="0" speed="13.90" length="2.41" shape="100.00,103.10 100.83,103.51 101.65,104.75"/>
    </edge>
    <edge id=":2_4" function="internal">
        <lane id=":2_4_0" index="0" speed="13.90" length="5.00" shape="104.75,101.65 103.39,101.84 102.43,102.43 101.84,103.39 101.65,104.75"/>
    </edge>
    <edge id=":2_5" function="internal">
        <lane id=":2_5_0" index="0" speed="13.90" length="9.50" shape="104.75,101.65 95.25,101.65"/>
    </edge>
    <edge id=":2_6" function="internal">
        <lane id=":2_6_0" index="0" speed="13.90" length="5.28" shape="104.75,101.65 101.95,101.25 99.95,100.05 99.89,99.95"/>
    </edge>
    <edge id=":2_7" function="internal">
        <lane id=":2_7_0" index="0" speed="13.90" length="2.41" shape="104.75,101.65 103.51,100.82 103.10,100.00"/>
    </edge>
    <edge id=":2_18" function="internal">
        <lane id=":2_18_0" index="0" speed="13.90" length="5.04" shape="99.89,99.95 98.75,98.05 98.35,95.25"/>
    </edge>
    <edge id=":2_19" function="internal">
        <lane id=":2_19_0" index="0" speed="13.90" length="2.41" shape="103.10,100.00 103.51,99.17 104.75,98.35"/>
    </edge>
    <edge id=":2_8" function="internal">
        <lane id=":2_8_0" index="0" speed="13.90" length="5.00" shape="101.65,95.25 101.84,96.61 102.43,97.57 103.39,98.16 104.75,98.35"/>
    </edge>
    <edge id=":2_9" function="internal">
        <lane id=":2_9_0" index="0" speed="13.90" length="9.50" shape="101.65,95.25 101.65,104.75"/>
    </edge>
    <edge id=":2_10" function="internal">
        <lane id=":2_10_0" index="0" speed="13.90" length="5.28" shape="101.65,95.25 101.25,98.05 100.05,100.05 99.95,100.11"/>
    </edge>
    <edge id=":2_11" function="internal">
        <lane id=":2_11_0" index="0" speed="13.90" length="2.41" shape="101.65,95.25 100.82,96.49 100.00,96.90"/>
    </edge>
    <edge id=":2_20" function="internal">
        <lane id=":2_20_0" index="0" speed="13.90" length="5.04" shape="99.95,100.11 98.05,101.25 95.25,101.65"/>
    </edge>
    <edge id=":2_21" function="internal">
        <lane id=":2_21_0" index="0" speed="13.90" length="2.41" shape="100.00,96.90 99.17,96.49 98.35,95.25"/>
    </edge>
    <edge id=":2_12" function="internal">
        <lane id=":2_12_0" index="0" speed="13.90" length="5.00" shape="95.25,98.35 96.61,98.16 97.57,97.57 98.16,96.61 98.35,95.25"/>
    </edge>
    <edge id=":2_13" function="internal">
        <lane id=":2_13_0" index="0" speed="13.90" length="9.50" shape="95.25,98.35 104.75,98.35"/>
    </edge>
    <edge id=":2_14" function="internal">
        <lane id=":2_14_0" index="0" speed="13.90" length="5.28" shape="95.25,98.35 98.05,98.75 100.05,99.95 100.11,100.05"/>
    </edge>
    <edge id=":2_15" function="internal">
        <lane id=":2_15_0" index="0" speed="13.90" length="2.41" shape="95.25,98.35 96.49,99.18 96.90,100.00"/>
    </edge>
    <edge id=":2_22" function="internal">
        <lane id=":2_22_0" index="0" speed="13.90" length="5.04" shape="100.11,100.05 101.25,101.95 101.65,104.75"/>
    </edge>
    <edge id=":2_23" function="internal">
        <lane id=":2_23_0" index="0" speed="13.90" length="2.41" shape="96.90,100.00 96.49,100.83 95.25,101.65"/>
    </edge>
    <edge id=":3_0" function="internal">
        <lane id=":3_0_0" index="0" speed="13.90" length="4.82" shape="200.00,98.35 201.24,99.18 201.65,100.00 201.24,100.83 200.00,101.65"/>
    </edge>
    <edge id=":4_0" function="internal">
        <lane id=":4_0_0" index="0" speed="13.90" length="4.82" shape="98.35,0.00 99.18,-1.24 100.00,-1.65 100.83,-1.24 101.65,0.00"/>
    </edge>
    <edge id=":5_0" function="internal">
        <lane id=":5_0_0" index="0" speed="13.90" length="4.82" shape="101.65,200.00 100.82,201.24 100.00,201.65 99.17,201.24 98.35,200.00"/>
    </edge>

    <edge id="down-up-1" from="4" to="2" priority="-1">
        <lane id="down-up-1_0" index="0" speed="13.90" length="95.25" shape="101.65,0.00 101.65,95.25"/>
    </edge>
    <edge id="down-up-2" from="2" to="5" priority="-1">
        <lane id="down-up-2_0" index="0" speed="13.90" length="95.25" shape="101.65,104.75 101.65,200.00"/>
    </edge>
    <edge id="left-right-1" from="1" to="2" priority="-1">
        <lane id="left-right-1_0" index="0" speed="13.90" length="95.25" shape="0.00,98.35 95.25,98.35"/>
    </edge>
    <edge id="left-right-2" from="2" to="3" priority="-1">
        <lane id="left-right-2_0" index="0" speed="13.90" length="95.25" shape="104.75,98.35 200.00,98.35"/>
    </edge>
    <edge id="right-left-1" from="3" to="2" priority="-1">
        <lane id="right-left-1_0" index="0" speed="13.90" length="95.25" shape="200.00,101.65 104.75,101.65"/>
    </edge>
    <edge id="right-left-2" from="2" to="1" priority="-1">
        <lane id="right-left-2_0" index="0" speed="13.90" length="95.25" shape="95.25,101.65 0.00,101.65"/>
    </edge>
    <edge id="up-down-1" from="5" to="2" priority="-1">
        <lane id="up-down-1_0" index="0" speed="13.90" length="95.25" shape="98.35,200.00 98.35,104.75"/>
    </edge>
    <edge id="up-down-2" from="2" to="4" priority="-1">
        <lane id="up-down-2_0" index="0" speed="13.90" length="95.25" shape="98.35,95.25 98.35,0.00"/>
    </edge>

    <tlLogic id="2" type="static" programID="0" offset="0">
        <!-- <phase duration="31" state="GGggrrrrGGggrrrr"/>
        <phase duration="4" state="yyggrrrryyggrrrr"/>
        <phase duration="6" state="rrGGrrrrrrGGrrrr"/>
        <phase duration="4" state="rryyrrrrrryyrrrr"/>
        <phase duration="31" state="rrrrGGggrrrrGGgg"/>
        <phase duration="4" state="rrrryyggrrrryygg"/>
        <phase duration="6" state="rrrrrrGGrrrrrrGG"/>
        <phase duration="4" state="rrrrrryyrrrrrryy"/> -->

        <!-- modifed -->
        <!-- enforce FST to enable one lane Green at a time in clockwise direction -->
        <phase duration="31" state="GGGGrrrrrrrrrrrr"/>
        <phase duration="4" state="yyyyrrrrrrrrrrrr"/>
        <phase duration="4" state="rrrryyyyrrrrrrrr"/>
        <phase duration="31" state="rrrrGGGGrrrrrrrr"/>
        <phase duration="4" state="rrrryyyyrrrrrrrr"/>
        <phase duration="4" state="rrrrrrrryyyyrrrr"/>
        <phase duration="31" state="rrrrrrrrGGGGrrrr"/>
        <phase duration="4" state="rrrrrrrryyyyrrrr"/>
        <phase duration="4" state="rrrrrrrrrrrryyyy"/>
        <phase duration="31" state="rrrrrrrrrrrrGGGG"/>
        <phase duration="4" state="rrrrrrrrrrrryyyy"/>
        <phase duration="4" state="yyyyrrrrrrrrrrrr"/>
    </tlLogic>

    <junction id="1" type="priority" x="0.00" y="100.00" incLanes="right-left-2_0" intLanes=":1_0_0" shape="0.00,99.95 0.00,103.25 0.00,100.05">
        <request index="0" response="0" foes="0" cont="0"/>
    </junction>
    <junction id="2" type="traffic_light" x="100.00" y="100.00" incLanes="up-down-1_0 right-left-1_0 down-up-1_0 left-right-1_0" intLanes=":2_0_0 :2_1_0 :2_16_0 :2_17_0 :2_4_0 :2_5_0 :2_18_0 :2_19_0 :2_8_0 :2_9_0 :2_20_0 :2_21_0 :2_12_0 :2_13_0 :2_22_0 :2_23_0" shape="96.75,104.75 103.25,104.75 104.75,103.25 104.75,96.75 103.25,95.25 96.75,95.25 95.25,96.75 95.25,103.25">
        <request index="0" response="0000000000000000" foes="1000010000100000" cont="0"/>
        <request index="1" response="0000000000000000" foes="0111110001100000" cont="0"/>
        <request index="2" response="0000001100000000" foes="0110001111100000" cont="1"/>
        <request index="3" response="0100001000010000" foes="0100001000010000" cont="1"/>
        <request index="4" response="0000001000000000" foes="0100001000001000" cont="0"/>
        <request index="5" response="0000011000000111" foes="1100011000000111" cont="0"/>
        <request index="6" response="0011011000000110" foes="0011111000000110" cont="1"/>
        <request index="7" response="0010000100000100" foes="0010000100000100" cont="1"/>
        <request index="8" response="0000000000000000" foes="0010000010000100" cont="0"/>
        <request index="9" response="0000000000000000" foes="0110000001111100" cont="0"/>
        <request index="10" response="0000000000000011" foes="1110000001100011" cont="1"/>
        <request index="11" response="0001000001000010" foes="0001000001000010" cont="1"/>
        <request index="12" response="0000000000000010" foes="0000100001000010" cont="0"/>
        <request index="13" response="0000011100000110" foes="0000011111000110" cont="0"/>
        <request index="14" response="0000011000110110" foes="0000011000111110" cont="1"/>
        <request index="15" response="0000010000100001" foes="0000010000100001" cont="1"/>
    </junction>
    <junction id="3" type="priority" x="200.00" y="100.00" incLanes="left-right-2_0" intLanes=":3_0_0" shape="200.00,100.05 200.00,96.75 200.00,99.95">
        <request index="0" response="0" foes="0" cont="0"/>
    </junction>
    <junction id="4" type="priority" x="100.00" y="0.00" incLanes="up-down-2_0" intLanes=":4_0_0" shape="100.05,0.00 96.75,0.00 99.95,0.00">
        <request index="0" response="0" foes="0" cont="0"/>
    </junction>
    <junction id="5" type="priority" x="100.00" y="200.00" incLanes="down-up-2_0" intLanes=":5_0_0" shape="99.95,200.00 103.25,200.00 100.05,200.00">
        <request index="0" response="0" foes="0" cont="0"/>
    </junction>

    <junction id=":2_16_0" type="internal" x="100.05" y="99.89" incLanes=":2_2_0 down-up-1_0" intLanes=":2_5_0 :2_6_0 :2_7_0 :2_8_0 :2_9_0 :2_13_0 :2_14_0"/>
    <junction id=":2_17_0" type="internal" x="100.00" y="103.10" incLanes=":2_3_0 down-up-1_0 left-right-1_0 right-left-1_0" intLanes=":2_4_0 :2_9_0 :2_14_0"/>
    <junction id=":2_18_0" type="internal" x="99.89" y="99.95" incLanes=":2_6_0 left-right-1_0" intLanes=":2_1_0 :2_2_0 :2_9_0 :2_10_0 :2_11_0 :2_12_0 :2_13_0"/>
    <junction id=":2_19_0" type="internal" x="103.10" y="100.00" incLanes=":2_7_0 down-up-1_0 left-right-1_0 up-down-1_0" intLanes=":2_2_0 :2_8_0 :2_13_0"/>
    <junction id=":2_20_0" type="internal" x="99.95" y="100.11" incLanes=":2_10_0 up-down-1_0" intLanes=":2_0_0 :2_1_0 :2_5_0 :2_6_0 :2_13_0 :2_14_0 :2_15_0"/>
    <junction id=":2_21_0" type="internal" x="100.00" y="96.90" incLanes=":2_11_0 left-right-1_0 right-left-1_0 up-down-1_0" intLanes=":2_1_0 :2_6_0 :2_12_0"/>
    <junction id=":2_22_0" type="internal" x="100.11" y="100.05" incLanes=":2_14_0 right-left-1_0" intLanes=":2_1_0 :2_2_0 :2_3_0 :2_4_0 :2_5_0 :2_9_0 :2_10_0"/>
    <junction id=":2_23_0" type="internal" x="96.90" y="100.00" incLanes=":2_15_0 down-up-1_0 right-left-1_0 up-down-1_0" intLanes=":2_0_0 :2_5_0 :2_10_0"/>

    <connection from="down-up-1" to="left-right-2" fromLane="0" toLane="0" via=":2_8_0" tl="2" linkIndex="8" dir="r" state="o"/>
    <connection from="down-up-1" to="down-up-2" fromLane="0" toLane="0" via=":2_9_0" tl="2" linkIndex="9" dir="s" state="o"/>
    <connection from="down-up-1" to="right-left-2" fromLane="0" toLane="0" via=":2_10_0" tl="2" linkIndex="10" dir="l" state="o"/>
    <connection from="down-up-1" to="up-down-2" fromLane="0" toLane="0" via=":2_11_0" tl="2" linkIndex="11" dir="t" state="o"/>
    <connection from="down-up-2" to="up-down-1" fromLane="0" toLane="0" via=":5_0_0" dir="t" state="M"/>
    <connection from="left-right-1" to="up-down-2" fromLane="0" toLane="0" via=":2_12_0" tl="2" linkIndex="12" dir="r" state="o"/>
    <connection from="left-right-1" to="left-right-2" fromLane="0" toLane="0" via=":2_13_0" tl="2" linkIndex="13" dir="s" state="o"/>
    <connection from="left-right-1" to="down-up-2" fromLane="0" toLane="0" via=":2_14_0" tl="2" linkIndex="14" dir="l" state="o"/>
    <connection from="left-right-1" to="right-left-2" fromLane="0" toLane="0" via=":2_15_0" tl="2" linkIndex="15" dir="t" state="o"/>
    <connection from="left-right-2" to="right-left-1" fromLane="0" toLane="0" via=":3_0_0" dir="t" state="M"/>
    <connection from="right-left-1" to="down-up-2" fromLane="0" toLane="0" via=":2_4_0" tl="2" linkIndex="4" dir="r" state="o"/>
    <connection from="right-left-1" to="right-left-2" fromLane="0" toLane="0" via=":2_5_0" tl="2" linkIndex="5" dir="s" state="o"/>
    <connection from="right-left-1" to="up-down-2" fromLane="0" toLane="0" via=":2_6_0" tl="2" linkIndex="6" dir="l" state="o"/>
    <connection from="right-left-1" to="left-right-2" fromLane="0" toLane="0" via=":2_7_0" tl="2" linkIndex="7" dir="t" state="o"/>
    <connection from="right-left-2" to="left-right-1" fromLane="0" toLane="0" via=":1_0_0" dir="t" state="M"/>
    <connection from="up-down-1" to="right-left-2" fromLane="0" toLane="0" via=":2_0_0" tl="2" linkIndex="0" dir="r" state="o"/>
    <connection from="up-down-1" to="up-down-2" fromLane="0" toLane="0" via=":2_1_0" tl="2" linkIndex="1" dir="s" state="o"/>
    <connection from="up-down-1" to="left-right-2" fromLane="0" toLane="0" via=":2_2_0" tl="2" linkIndex="2" dir="l" state="o"/>
    <connection from="up-down-1" to="down-up-2" fromLane="0" toLane="0" via=":2_3_0" tl="2" linkIndex="3" dir="t" state="o"/>
    <connection from="up-down-2" to="down-up-1" fromLane="0" toLane="0" via=":4_0_0" dir="t" state="M"/>

    <connection from=":1_0" to="left-right-1" fromLane="0" toLane="0" dir="s" state="M"/>
    <connection from=":2_0" to="right-left-2" fromLane="0" toLane="0" dir="s" state="M"/>
    <connection from=":2_1" to="up-down-2" fromLane="0" toLane="0" dir="s" state="M"/>
    <connection from=":2_2" to="left-right-2" fromLane="0" toLane="0" via=":2_16_0" dir="s" state="m"/>
    <connection from=":2_16" to="left-right-2" fromLane="0" toLane="0" dir="s" state="M"/>
    <connection from=":2_3" to="down-up-2" fromLane="0" toLane="0" via=":2_17_0" dir="s" state="m"/>
    <connection from=":2_17" to="down-up-2" fromLane="0" toLane="0" dir="s" state="M"/>
    <connection from=":2_4" to="down-up-2" fromLane="0" toLane="0" dir="s" state="M"/>
    <connection from=":2_5" to="right-left-2" fromLane="0" toLane="0" dir="s" state="M"/>
    <connection from=":2_6" to="up-down-2" fromLane="0" toLane="0" via=":2_18_0" dir="s" state="m"/>
    <connection from=":2_18" to="up-down-2" fromLane="0" toLane="0" dir="s" state="M"/>
    <connection from=":2_7" to="left-right-2" fromLane="0" toLane="0" via=":2_19_0" dir="s" state="m"/>
    <connection from=":2_19" to="left-right-2" fromLane="0" toLane="0" dir="s" state="M"/>
    <connection from=":2_8" to="left-right-2" fromLane="0" toLane="0" dir="s" state="M"/>
    <connection from=":2_9" to="down-up-2" fromLane="0" toLane="0" dir="s" state="M"/>
    <connection from=":2_10" to="right-left-2" fromLane="0" toLane="0" via=":2_20_0" dir="s" state="m"/>
    <connection from=":2_20" to="right-left-2" fromLane="0" toLane="0" dir="s" state="M"/>
    <connection from=":2_11" to="up-down-2" fromLane="0" toLane="0" via=":2_21_0" dir="s" state="m"/>
    <connection from=":2_21" to="up-down-2" fromLane="0" toLane="0" dir="s" state="M"/>
    <connection from=":2_12" to="up-down-2" fromLane="0" toLane="0" dir="s" state="M"/>
    <connection from=":2_13" to="left-right-2" fromLane="0" toLane="0" dir="s" state="M"/>
    <connection from=":2_14" to="down-up-2" fromLane="0" toLane="0" via=":2_22_0" dir="s" state="m"/>
    <connection from=":2_22" to="down-up-2" fromLane="0" toLane="0" dir="s" state="M"/>
    <connection from=":2_15" to="right-left-2" fromLane="0" toLane="0" via=":2_23_0" dir="s" state="m"/>
    <connection from=":2_23" to="right-left-2" fromLane="0" toLane="0" dir="s" state="M"/>
    <connection from=":3_0" to="right-left-1" fromLane="0" toLane="0" dir="s" state="M"/>
    <connection from=":4_0" to="down-up-1" fromLane="0" toLane="0" dir="s" state="M"/>
    <connection from=":5_0" to="up-down-1" fromLane="0" toLane="0" dir="s" state="M"/>

</net>
