<?xml version="1.0" encoding="UTF-8"?>

<!-- generated on 09/25/17 11:48:22 by SUMO netconvert Version 0.30.0
<?xml version="1.0" encoding="UTF-8"?>

<configuration xmlns:xsi="http://www.w3.org/2001/XMLSchema-instance" xsi:noNamespaceSchemaLocation="http://sumo.dlr.de/xsd/netconvertConfiguration.xsd">

    <input>
        <node-files value="hello.nod.xml"/>
        <edge-files value="hello.edg.xml"/>
    </input>

    <output>
        <output-file value="hello.net.xml"/>
    </output>

</configuration>
-->

<net version="0.27" xmlns:xsi="http://www.w3.org/2001/XMLSchema-instance" xsi:noNamespaceSchemaLocation="http://sumo.dlr.de/xsd/net_file.xsd">

    <location netOffset="0.00,0.00" convBoundary="0.00,0.00,100.00,100.00" origBoundary="0.00,0.00,100.00,100.00" projParameter="!"/>

    <edge id=":1_0" function="internal">
        <lane id=":1_0_0" index="0" speed="13.90" length="4.82" shape="0.00,51.65 -1.24,50.82 -1.65,50.00 -1.24,49.17 0.00,48.35"/>
    </edge>
    <edge id=":2_0" function="internal">
        <lane id=":2_0_0" index="0" speed="13.90" length="5.00" shape="48.35,54.75 48.16,53.39 47.58,52.42 46.61,51.84 45.25,51.65"/>
    </edge>
    <edge id=":2_1" function="internal">
        <lane id=":2_1_0" index="0" speed="13.90" length="9.50" shape="48.35,54.75 48.35,45.25"/>
    </edge>
    <edge id=":2_2" function="internal">
        <lane id=":2_2_0" index="0" speed="13.90" length="5.28" shape="48.35,54.75 48.75,51.95 49.95,49.95 50.05,49.89"/>
    </edge>
    <edge id=":2_3" function="internal">
        <lane id=":2_3_0" index="0" speed="13.90" length="2.41" shape="48.35,54.75 49.18,53.51 50.00,53.10"/>
    </edge>
    <edge id=":2_16" function="internal">
        <lane id=":2_16_0" index="0" speed="13.90" length="5.04" shape="50.05,49.89 51.95,48.75 54.75,48.35"/>
    </edge>
    <edge id=":2_17" function="internal">
        <lane id=":2_17_0" index="0" speed="13.90" length="2.41" shape="50.00,53.10 50.83,53.51 51.65,54.75"/>
    </edge>
    <edge id=":2_4" function="internal">
        <lane id=":2_4_0" index="0" speed="13.90" length="5.00" shape="54.75,51.65 53.39,51.84 52.42,52.42 51.84,53.39 51.65,54.75"/>
    </edge>
    <edge id=":2_5" function="internal">
        <lane id=":2_5_0" index="0" speed="13.90" length="9.50" shape="54.75,51.65 45.25,51.65"/>
    </edge>
    <edge id=":2_6" function="internal">
        <lane id=":2_6_0" index="0" speed="13.90" length="5.28" shape="54.75,51.65 51.95,51.25 49.95,50.05 49.89,49.95"/>
    </edge>
    <edge id=":2_7" function="internal">
        <lane id=":2_7_0" index="0" speed="13.90" length="2.41" shape="54.75,51.65 53.51,50.82 53.10,50.00"/>
    </edge>
    <edge id=":2_18" function="internal">
        <lane id=":2_18_0" index="0" speed="13.90" length="5.04" shape="49.89,49.95 48.75,48.05 48.35,45.25"/>
    </edge>
    <edge id=":2_19" function="internal">
        <lane id=":2_19_0" index="0" speed="13.90" length="2.41" shape="53.10,50.00 53.51,49.17 54.75,48.35"/>
    </edge>
    <edge id=":2_8" function="internal">
        <lane id=":2_8_0" index="0" speed="13.90" length="5.00" shape="51.65,45.25 51.84,46.61 52.42,47.58 53.39,48.16 54.75,48.35"/>
    </edge>
    <edge id=":2_9" function="internal">
        <lane id=":2_9_0" index="0" speed="13.90" length="9.50" shape="51.65,45.25 51.65,54.75"/>
    </edge>
    <edge id=":2_10" function="internal">
        <lane id=":2_10_0" index="0" speed="13.90" length="5.28" shape="51.65,45.25 51.25,48.05 50.05,50.05 49.95,50.11"/>
    </edge>
    <edge id=":2_11" function="internal">
        <lane id=":2_11_0" index="0" speed="13.90" length="2.41" shape="51.65,45.25 50.82,46.49 50.00,46.90"/>
    </edge>
    <edge id=":2_20" function="internal">
        <lane id=":2_20_0" index="0" speed="13.90" length="5.04" shape="49.95,50.11 48.05,51.25 45.25,51.65"/>
    </edge>
    <edge id=":2_21" function="internal">
        <lane id=":2_21_0" index="0" speed="13.90" length="2.41" shape="50.00,46.90 49.17,46.49 48.35,45.25"/>
    </edge>
    <edge id=":2_12" function="internal">
        <lane id=":2_12_0" index="0" speed="13.90" length="5.00" shape="45.25,48.35 46.61,48.16 47.58,47.58 48.16,46.61 48.35,45.25"/>
    </edge>
    <edge id=":2_13" function="internal">
        <lane id=":2_13_0" index="0" speed="13.90" length="9.50" shape="45.25,48.35 54.75,48.35"/>
    </edge>
    <edge id=":2_14" function="internal">
        <lane id=":2_14_0" index="0" speed="13.90" length="5.28" shape="45.25,48.35 48.05,48.75 50.05,49.95 50.11,50.05"/>
    </edge>
    <edge id=":2_15" function="internal">
        <lane id=":2_15_0" index="0" speed="13.90" length="2.41" shape="45.25,48.35 46.49,49.18 46.90,50.00"/>
    </edge>
    <edge id=":2_22" function="internal">
        <lane id=":2_22_0" index="0" speed="13.90" length="5.04" shape="50.11,50.05 51.25,51.95 51.65,54.75"/>
    </edge>
    <edge id=":2_23" function="internal">
        <lane id=":2_23_0" index="0" speed="13.90" length="2.41" shape="46.90,50.00 46.49,50.83 45.25,51.65"/>
    </edge>
    <edge id=":3_0" function="internal">
        <lane id=":3_0_0" index="0" speed="13.90" length="4.82" shape="100.00,48.35 101.24,49.18 101.65,50.00 101.24,50.83 100.00,51.65"/>
    </edge>
    <edge id=":4_0" function="internal">
        <lane id=":4_0_0" index="0" speed="13.90" length="4.82" shape="48.35,0.00 49.18,-1.24 50.00,-1.65 50.83,-1.24 51.65,0.00"/>
    </edge>
    <edge id=":5_0" function="internal">
        <lane id=":5_0_0" index="0" speed="13.90" length="4.82" shape="51.65,100.00 50.82,101.24 50.00,101.65 49.17,101.24 48.35,100.00"/>
    </edge>

    <edge id="down-up-1" from="4" to="2" priority="-1">
        <lane id="down-up-1_0" index="0" speed="13.90" length="45.25" shape="51.65,0.00 51.65,45.25"/>
    </edge>
    <edge id="down-up-2" from="2" to="5" priority="-1">
        <lane id="down-up-2_0" index="0" speed="13.90" length="45.25" shape="51.65,54.75 51.65,100.00"/>
    </edge>
    <edge id="left-right-1" from="1" to="2" priority="-1">
        <lane id="left-right-1_0" index="0" speed="13.90" length="45.25" shape="0.00,48.35 45.25,48.35"/>
    </edge>
    <edge id="left-right-2" from="2" to="3" priority="-1">
        <lane id="left-right-2_0" index="0" speed="13.90" length="45.25" shape="54.75,48.35 100.00,48.35"/>
    </edge>
    <edge id="right-left-1" from="3" to="2" priority="-1">
        <lane id="right-left-1_0" index="0" speed="13.90" length="45.25" shape="100.00,51.65 54.75,51.65"/>
    </edge>
    <edge id="right-left-2" from="2" to="1" priority="-1">
        <lane id="right-left-2_0" index="0" speed="13.90" length="45.25" shape="45.25,51.65 0.00,51.65"/>
    </edge>
    <edge id="up-down-1" from="5" to="2" priority="-1">
        <lane id="up-down-1_0" index="0" speed="13.90" length="45.25" shape="48.35,100.00 48.35,54.75"/>
    </edge>
    <edge id="up-down-2" from="2" to="4" priority="-1">
        <lane id="up-down-2_0" index="0" speed="13.90" length="45.25" shape="48.35,45.25 48.35,0.00"/>
    </edge>

    <tlLogic id="2" type="static" programID="0" offset="0">
        <phase duration="31" state="GGggrrrrGGggrrrr"/>
        <phase duration="4" state="yyggrrrryyggrrrr"/>
        <phase duration="6" state="rrGGrrrrrrGGrrrr"/>
        <phase duration="4" state="rryyrrrrrryyrrrr"/>
        <phase duration="31" state="rrrrGGggrrrrGGgg"/>
        <phase duration="4" state="rrrryyggrrrryygg"/>
        <phase duration="6" state="rrrrrrGGrrrrrrGG"/>
        <phase duration="4" state="rrrrrryyrrrrrryy"/>
    </tlLogic>

    <junction id="1" type="priority" x="0.00" y="50.00" incLanes="right-left-2_0" intLanes=":1_0_0" shape="0.00,49.95 0.00,53.25 0.00,50.05">
        <request index="0" response="0" foes="0" cont="0"/>
    </junction>
    <junction id="2" type="traffic_light" x="50.00" y="50.00" incLanes="up-down-1_0 right-left-1_0 down-up-1_0 left-right-1_0" intLanes=":2_0_0 :2_1_0 :2_16_0 :2_17_0 :2_4_0 :2_5_0 :2_18_0 :2_19_0 :2_8_0 :2_9_0 :2_20_0 :2_21_0 :2_12_0 :2_13_0 :2_22_0 :2_23_0" shape="46.75,54.75 53.25,54.75 54.75,53.25 54.75,46.75 53.25,45.25 46.75,45.25 45.25,46.75 45.25,53.25">
        <request index="0" response="0000000000000000" foes="1000010000100000" cont="0"/>
        <request index="1" response="0000000000000000" foes="0111110001100000" cont="0"/>
        <request index="2" response="0000001100000000" foes="0110001111100000" cont="1"/>
        <request index="3" response="0100001000010000" foes="0100001000010000" cont="1"/>
        <request index="4" response="0000001000000000" foes="0100001000001000" cont="0"/>
        <request index="5" response="0000011000000111" foes="1100011000000111" cont="0"/>
        <request index="6" response="0011011000000110" foes="0011111000000110" cont="1"/>
        <request index="7" response="0010000100000100" foes="0010000100000100" cont="1"/>
        <request index="8" response="0000000000000000" foes="0010000010000100" cont="0"/>
        <request index="9" response="0000000000000000" foes="0110000001111100" cont="0"/>
        <request index="10" response="0000000000000011" foes="1110000001100011" cont="1"/>
        <request index="11" response="0001000001000010" foes="0001000001000010" cont="1"/>
        <request index="12" response="0000000000000010" foes="0000100001000010" cont="0"/>
        <request index="13" response="0000011100000110" foes="0000011111000110" cont="0"/>
        <request index="14" response="0000011000110110" foes="0000011000111110" cont="1"/>
        <request index="15" response="0000010000100001" foes="0000010000100001" cont="1"/>
    </junction>
    <junction id="3" type="priority" x="100.00" y="50.00" incLanes="left-right-2_0" intLanes=":3_0_0" shape="100.00,50.05 100.00,46.75 100.00,49.95">
        <request index="0" response="0" foes="0" cont="0"/>
    </junction>
    <junction id="4" type="priority" x="50.00" y="0.00" incLanes="up-down-2_0" intLanes=":4_0_0" shape="50.05,0.00 46.75,0.00 49.95,0.00">
        <request index="0" response="0" foes="0" cont="0"/>
    </junction>
    <junction id="5" type="priority" x="50.00" y="100.00" incLanes="down-up-2_0" intLanes=":5_0_0" shape="49.95,100.00 53.25,100.00 50.05,100.00">
        <request index="0" response="0" foes="0" cont="0"/>
    </junction>

    <junction id=":2_16_0" type="internal" x="50.05" y="49.89" incLanes=":2_2_0 down-up-1_0" intLanes=":2_5_0 :2_6_0 :2_7_0 :2_8_0 :2_9_0 :2_13_0 :2_14_0"/>
    <junction id=":2_17_0" type="internal" x="50.00" y="53.10" incLanes=":2_3_0 down-up-1_0 left-right-1_0 right-left-1_0" intLanes=":2_4_0 :2_9_0 :2_14_0"/>
    <junction id=":2_18_0" type="internal" x="49.89" y="49.95" incLanes=":2_6_0 left-right-1_0" intLanes=":2_1_0 :2_2_0 :2_9_0 :2_10_0 :2_11_0 :2_12_0 :2_13_0"/>
    <junction id=":2_19_0" type="internal" x="53.10" y="50.00" incLanes=":2_7_0 down-up-1_0 left-right-1_0 up-down-1_0" intLanes=":2_2_0 :2_8_0 :2_13_0"/>
    <junction id=":2_20_0" type="internal" x="49.95" y="50.11" incLanes=":2_10_0 up-down-1_0" intLanes=":2_0_0 :2_1_0 :2_5_0 :2_6_0 :2_13_0 :2_14_0 :2_15_0"/>
    <junction id=":2_21_0" type="internal" x="50.00" y="46.90" incLanes=":2_11_0 left-right-1_0 right-left-1_0 up-down-1_0" intLanes=":2_1_0 :2_6_0 :2_12_0"/>
    <junction id=":2_22_0" type="internal" x="50.11" y="50.05" incLanes=":2_14_0 right-left-1_0" intLanes=":2_1_0 :2_2_0 :2_3_0 :2_4_0 :2_5_0 :2_9_0 :2_10_0"/>
    <junction id=":2_23_0" type="internal" x="46.90" y="50.00" incLanes=":2_15_0 down-up-1_0 right-left-1_0 up-down-1_0" intLanes=":2_0_0 :2_5_0 :2_10_0"/>

    <connection from="down-up-1" to="left-right-2" fromLane="0" toLane="0" via=":2_8_0" tl="2" linkIndex="8" dir="r" state="o"/>
    <connection from="down-up-1" to="down-up-2" fromLane="0" toLane="0" via=":2_9_0" tl="2" linkIndex="9" dir="s" state="o"/>
    <connection from="down-up-1" to="right-left-2" fromLane="0" toLane="0" via=":2_10_0" tl="2" linkIndex="10" dir="l" state="o"/>
    <connection from="down-up-1" to="up-down-2" fromLane="0" toLane="0" via=":2_11_0" tl="2" linkIndex="11" dir="t" state="o"/>
    <connection from="down-up-2" to="up-down-1" fromLane="0" toLane="0" via=":5_0_0" dir="t" state="M"/>
    <connection from="left-right-1" to="up-down-2" fromLane="0" toLane="0" via=":2_12_0" tl="2" linkIndex="12" dir="r" state="o"/>
    <connection from="left-right-1" to="left-right-2" fromLane="0" toLane="0" via=":2_13_0" tl="2" linkIndex="13" dir="s" state="o"/>
    <connection from="left-right-1" to="down-up-2" fromLane="0" toLane="0" via=":2_14_0" tl="2" linkIndex="14" dir="l" state="o"/>
    <connection from="left-right-1" to="right-left-2" fromLane="0" toLane="0" via=":2_15_0" tl="2" linkIndex="15" dir="t" state="o"/>
    <connection from="left-right-2" to="right-left-1" fromLane="0" toLane="0" via=":3_0_0" dir="t" state="M"/>
    <connection from="right-left-1" to="down-up-2" fromLane="0" toLane="0" via=":2_4_0" tl="2" linkIndex="4" dir="r" state="o"/>
    <connection from="right-left-1" to="right-left-2" fromLane="0" toLane="0" via=":2_5_0" tl="2" linkIndex="5" dir="s" state="o"/>
    <connection from="right-left-1" to="up-down-2" fromLane="0" toLane="0" via=":2_6_0" tl="2" linkIndex="6" dir="l" state="o"/>
    <connection from="right-left-1" to="left-right-2" fromLane="0" toLane="0" via=":2_7_0" tl="2" linkIndex="7" dir="t" state="o"/>
    <connection from="right-left-2" to="left-right-1" fromLane="0" toLane="0" via=":1_0_0" dir="t" state="M"/>
    <connection from="up-down-1" to="right-left-2" fromLane="0" toLane="0" via=":2_0_0" tl="2" linkIndex="0" dir="r" state="o"/>
    <connection from="up-down-1" to="up-down-2" fromLane="0" toLane="0" via=":2_1_0" tl="2" linkIndex="1" dir="s" state="o"/>
    <connection from="up-down-1" to="left-right-2" fromLane="0" toLane="0" via=":2_2_0" tl="2" linkIndex="2" dir="l" state="o"/>
    <connection from="up-down-1" to="down-up-2" fromLane="0" toLane="0" via=":2_3_0" tl="2" linkIndex="3" dir="t" state="o"/>
    <connection from="up-down-2" to="down-up-1" fromLane="0" toLane="0" via=":4_0_0" dir="t" state="M"/>

    <connection from=":1_0" to="left-right-1" fromLane="0" toLane="0" dir="s" state="M"/>
    <connection from=":2_0" to="right-left-2" fromLane="0" toLane="0" dir="s" state="M"/>
    <connection from=":2_1" to="up-down-2" fromLane="0" toLane="0" dir="s" state="M"/>
    <connection from=":2_2" to="left-right-2" fromLane="0" toLane="0" via=":2_16_0" dir="s" state="m"/>
    <connection from=":2_16" to="left-right-2" fromLane="0" toLane="0" dir="s" state="M"/>
    <connection from=":2_3" to="down-up-2" fromLane="0" toLane="0" via=":2_17_0" dir="s" state="m"/>
    <connection from=":2_17" to="down-up-2" fromLane="0" toLane="0" dir="s" state="M"/>
    <connection from=":2_4" to="down-up-2" fromLane="0" toLane="0" dir="s" state="M"/>
    <connection from=":2_5" to="right-left-2" fromLane="0" toLane="0" dir="s" state="M"/>
    <connection from=":2_6" to="up-down-2" fromLane="0" toLane="0" via=":2_18_0" dir="s" state="m"/>
    <connection from=":2_18" to="up-down-2" fromLane="0" toLane="0" dir="s" state="M"/>
    <connection from=":2_7" to="left-right-2" fromLane="0" toLane="0" via=":2_19_0" dir="s" state="m"/>
    <connection from=":2_19" to="left-right-2" fromLane="0" toLane="0" dir="s" state="M"/>
    <connection from=":2_8" to="left-right-2" fromLane="0" toLane="0" dir="s" state="M"/>
    <connection from=":2_9" to="down-up-2" fromLane="0" toLane="0" dir="s" state="M"/>
    <connection from=":2_10" to="right-left-2" fromLane="0" toLane="0" via=":2_20_0" dir="s" state="m"/>
    <connection from=":2_20" to="right-left-2" fromLane="0" toLane="0" dir="s" state="M"/>
    <connection from=":2_11" to="up-down-2" fromLane="0" toLane="0" via=":2_21_0" dir="s" state="m"/>
    <connection from=":2_21" to="up-down-2" fromLane="0" toLane="0" dir="s" state="M"/>
    <connection from=":2_12" to="up-down-2" fromLane="0" toLane="0" dir="s" state="M"/>
    <connection from=":2_13" to="left-right-2" fromLane="0" toLane="0" dir="s" state="M"/>
    <connection from=":2_14" to="down-up-2" fromLane="0" toLane="0" via=":2_22_0" dir="s" state="m"/>
    <connection from=":2_22" to="down-up-2" fromLane="0" toLane="0" dir="s" state="M"/>
    <connection from=":2_15" to="right-left-2" fromLane="0" toLane="0" via=":2_23_0" dir="s" state="m"/>
    <connection from=":2_23" to="right-left-2" fromLane="0" toLane="0" dir="s" state="M"/>
    <connection from=":3_0" to="right-left-1" fromLane="0" toLane="0" dir="s" state="M"/>
    <connection from=":4_0" to="down-up-1" fromLane="0" toLane="0" dir="s" state="M"/>
    <connection from=":5_0" to="up-down-1" fromLane="0" toLane="0" dir="s" state="M"/>

</net>
