<additional>
<e1Detector id="0" lane="left-right-1_0" pos="80" freq="30" file="hello.out" friendlyPos="x"/>
<e1Detector id="1" lane="left-right-1_0" pos="75" freq="30" file="hello.out" friendlyPos="x"/>
<e1Detector id="2" lane="left-right-1_0" pos="70" freq="30" file="hello.out" friendlyPos="x"/>
<e1Detector id="3" lane="left-right-1_0" pos="65" freq="30" file="hello.out" friendlyPos="x"/>
<e1Detector id="4" lane="left-right-1_0" pos="60" freq="30" file="hello.out" friendlyPos="x"/>
<e1Detector id="5" lane="left-right-1_0" pos="55" freq="30" file="hello.out" friendlyPos="x"/>
<e1Detector id="6" lane="left-right-1_0" pos="50" freq="30" file="hello.out" friendlyPos="x"/>
<e1Detector id="7" lane="left-right-1_0" pos="45" freq="30" file="hello.out" friendlyPos="x"/>
<e1Detector id="8" lane="left-right-1_0" pos="40" freq="30" file="hello.out" friendlyPos="x"/>
<e1Detector id="9" lane="left-right-1_0" pos="35" freq="30" file="hello.out" friendlyPos="x"/>
<e1Detector id="10" lane="left-right-1_0" pos="30" freq="30" file="hello.out" friendlyPos="x"/>
<e1Detector id="11" lane="left-right-1_0" pos="25" freq="30" file="hello.out" friendlyPos="x"/>
<e1Detector id="12" lane="left-right-1_0" pos="20" freq="30" file="hello.out" friendlyPos="x"/>
<e1Detector id="13" lane="left-right-1_0" pos="15" freq="30" file="hello.out" friendlyPos="x"/>
<e1Detector id="14" lane="left-right-1_0" pos="10" freq="30" file="hello.out" friendlyPos="x"/>
<e1Detector id="15" lane="left-right-1_0" pos="5" freq="30" file="hello.out" friendlyPos="x"/>
<e1Detector id="100" lane="left-right-1_1" pos="80" freq="30" file="hello.out" friendlyPos="x"/>
<e1Detector id="101" lane="left-right-1_1" pos="75" freq="30" file="hello.out" friendlyPos="x"/>
<e1Detector id="102" lane="left-right-1_1" pos="70" freq="30" file="hello.out" friendlyPos="x"/>
<e1Detector id="103" lane="left-right-1_1" pos="65" freq="30" file="hello.out" friendlyPos="x"/>
<e1Detector id="104" lane="left-right-1_1" pos="60" freq="30" file="hello.out" friendlyPos="x"/>
<e1Detector id="105" lane="left-right-1_1" pos="55" freq="30" file="hello.out" friendlyPos="x"/>
<e1Detector id="106" lane="left-right-1_1" pos="50" freq="30" file="hello.out" friendlyPos="x"/>
<e1Detector id="107" lane="left-right-1_1" pos="45" freq="30" file="hello.out" friendlyPos="x"/>
<e1Detector id="108" lane="left-right-1_1" pos="40" freq="30" file="hello.out" friendlyPos="x"/>
<e1Detector id="109" lane="left-right-1_1" pos="35" freq="30" file="hello.out" friendlyPos="x"/>
<e1Detector id="110" lane="left-right-1_1" pos="30" freq="30" file="hello.out" friendlyPos="x"/>
<e1Detector id="111" lane="left-right-1_1" pos="25" freq="30" file="hello.out" friendlyPos="x"/>
<e1Detector id="112" lane="left-right-1_1" pos="20" freq="30" file="hello.out" friendlyPos="x"/>
<e1Detector id="113" lane="left-right-1_1" pos="15" freq="30" file="hello.out" friendlyPos="x"/>
<e1Detector id="114" lane="left-right-1_1" pos="10" freq="30" file="hello.out" friendlyPos="x"/>
<e1Detector id="115" lane="left-right-1_1" pos="5" freq="30" file="hello.out" friendlyPos="x"/>
<e1Detector id="200" lane="left-right-1_2" pos="80" freq="30" file="hello.out" friendlyPos="x"/>
<e1Detector id="201" lane="left-right-1_2" pos="75" freq="30" file="hello.out" friendlyPos="x"/>
<e1Detector id="202" lane="left-right-1_2" pos="70" freq="30" file="hello.out" friendlyPos="x"/>
<e1Detector id="203" lane="left-right-1_2" pos="65" freq="30" file="hello.out" friendlyPos="x"/>
<e1Detector id="204" lane="left-right-1_2" pos="60" freq="30" file="hello.out" friendlyPos="x"/>
<e1Detector id="205" lane="left-right-1_2" pos="55" freq="30" file="hello.out" friendlyPos="x"/>
<e1Detector id="206" lane="left-right-1_2" pos="50" freq="30" file="hello.out" friendlyPos="x"/>
<e1Detector id="207" lane="left-right-1_2" pos="45" freq="30" file="hello.out" friendlyPos="x"/>
<e1Detector id="208" lane="left-right-1_2" pos="40" freq="30" file="hello.out" friendlyPos="x"/>
<e1Detector id="209" lane="left-right-1_2" pos="35" freq="30" file="hello.out" friendlyPos="x"/>
<e1Detector id="210" lane="left-right-1_2" pos="30" freq="30" file="hello.out" friendlyPos="x"/>
<e1Detector id="211" lane="left-right-1_2" pos="25" freq="30" file="hello.out" friendlyPos="x"/>
<e1Detector id="212" lane="left-right-1_2" pos="20" freq="30" file="hello.out" friendlyPos="x"/>
<e1Detector id="213" lane="left-right-1_2" pos="15" freq="30" file="hello.out" friendlyPos="x"/>
<e1Detector id="214" lane="left-right-1_2" pos="10" freq="30" file="hello.out" friendlyPos="x"/>
<e1Detector id="215" lane="left-right-1_2" pos="5" freq="30" file="hello.out" friendlyPos="x"/>
<e1Detector id="300" lane="left-right-1_3" pos="80" freq="30" file="hello.out" friendlyPos="x"/>
<e1Detector id="301" lane="left-right-1_3" pos="75" freq="30" file="hello.out" friendlyPos="x"/>
<e1Detector id="302" lane="left-right-1_3" pos="70" freq="30" file="hello.out" friendlyPos="x"/>
<e1Detector id="303" lane="left-right-1_3" pos="65" freq="30" file="hello.out" friendlyPos="x"/>
<e1Detector id="304" lane="left-right-1_3" pos="60" freq="30" file="hello.out" friendlyPos="x"/>
<e1Detector id="305" lane="left-right-1_3" pos="55" freq="30" file="hello.out" friendlyPos="x"/>
<e1Detector id="306" lane="left-right-1_3" pos="50" freq="30" file="hello.out" friendlyPos="x"/>
<e1Detector id="307" lane="left-right-1_3" pos="45" freq="30" file="hello.out" friendlyPos="x"/>
<e1Detector id="308" lane="left-right-1_3" pos="40" freq="30" file="hello.out" friendlyPos="x"/>
<e1Detector id="309" lane="left-right-1_3" pos="35" freq="30" file="hello.out" friendlyPos="x"/>
<e1Detector id="310" lane="left-right-1_3" pos="30" freq="30" file="hello.out" friendlyPos="x"/>
<e1Detector id="311" lane="left-right-1_3" pos="25" freq="30" file="hello.out" friendlyPos="x"/>
<e1Detector id="312" lane="left-right-1_3" pos="20" freq="30" file="hello.out" friendlyPos="x"/>
<e1Detector id="313" lane="left-right-1_3" pos="15" freq="30" file="hello.out" friendlyPos="x"/>
<e1Detector id="314" lane="left-right-1_3" pos="10" freq="30" file="hello.out" friendlyPos="x"/>
<e1Detector id="315" lane="left-right-1_3" pos="5" freq="30" file="hello.out" friendlyPos="x"/>
<e1Detector id="400" lane="right-left-1_0" pos="80" freq="30" file="hello.out" friendlyPos="x"/>
<e1Detector id="401" lane="right-left-1_0" pos="75" freq="30" file="hello.out" friendlyPos="x"/>
<e1Detector id="402" lane="right-left-1_0" pos="70" freq="30" file="hello.out" friendlyPos="x"/>
<e1Detector id="403" lane="right-left-1_0" pos="65" freq="30" file="hello.out" friendlyPos="x"/>
<e1Detector id="404" lane="right-left-1_0" pos="60" freq="30" file="hello.out" friendlyPos="x"/>
<e1Detector id="405" lane="right-left-1_0" pos="55" freq="30" file="hello.out" friendlyPos="x"/>
<e1Detector id="406" lane="right-left-1_0" pos="50" freq="30" file="hello.out" friendlyPos="x"/>
<e1Detector id="407" lane="right-left-1_0" pos="45" freq="30" file="hello.out" friendlyPos="x"/>
<e1Detector id="408" lane="right-left-1_0" pos="40" freq="30" file="hello.out" friendlyPos="x"/>
<e1Detector id="409" lane="right-left-1_0" pos="35" freq="30" file="hello.out" friendlyPos="x"/>
<e1Detector id="410" lane="right-left-1_0" pos="30" freq="30" file="hello.out" friendlyPos="x"/>
<e1Detector id="411" lane="right-left-1_0" pos="25" freq="30" file="hello.out" friendlyPos="x"/>
<e1Detector id="412" lane="right-left-1_0" pos="20" freq="30" file="hello.out" friendlyPos="x"/>
<e1Detector id="413" lane="right-left-1_0" pos="15" freq="30" file="hello.out" friendlyPos="x"/>
<e1Detector id="414" lane="right-left-1_0" pos="10" freq="30" file="hello.out" friendlyPos="x"/>
<e1Detector id="415" lane="right-left-1_0" pos="5" freq="30" file="hello.out" friendlyPos="x"/>
<e1Detector id="500" lane="right-left-1_1" pos="80" freq="30" file="hello.out" friendlyPos="x"/>
<e1Detector id="501" lane="right-left-1_1" pos="75" freq="30" file="hello.out" friendlyPos="x"/>
<e1Detector id="502" lane="right-left-1_1" pos="70" freq="30" file="hello.out" friendlyPos="x"/>
<e1Detector id="503" lane="right-left-1_1" pos="65" freq="30" file="hello.out" friendlyPos="x"/>
<e1Detector id="504" lane="right-left-1_1" pos="60" freq="30" file="hello.out" friendlyPos="x"/>
<e1Detector id="505" lane="right-left-1_1" pos="55" freq="30" file="hello.out" friendlyPos="x"/>
<e1Detector id="506" lane="right-left-1_1" pos="50" freq="30" file="hello.out" friendlyPos="x"/>
<e1Detector id="507" lane="right-left-1_1" pos="45" freq="30" file="hello.out" friendlyPos="x"/>
<e1Detector id="508" lane="right-left-1_1" pos="40" freq="30" file="hello.out" friendlyPos="x"/>
<e1Detector id="509" lane="right-left-1_1" pos="35" freq="30" file="hello.out" friendlyPos="x"/>
<e1Detector id="510" lane="right-left-1_1" pos="30" freq="30" file="hello.out" friendlyPos="x"/>
<e1Detector id="511" lane="right-left-1_1" pos="25" freq="30" file="hello.out" friendlyPos="x"/>
<e1Detector id="512" lane="right-left-1_1" pos="20" freq="30" file="hello.out" friendlyPos="x"/>
<e1Detector id="513" lane="right-left-1_1" pos="15" freq="30" file="hello.out" friendlyPos="x"/>
<e1Detector id="514" lane="right-left-1_1" pos="10" freq="30" file="hello.out" friendlyPos="x"/>
<e1Detector id="515" lane="right-left-1_1" pos="5" freq="30" file="hello.out" friendlyPos="x"/>
<e1Detector id="600" lane="right-left-1_2" pos="80" freq="30" file="hello.out" friendlyPos="x"/>
<e1Detector id="601" lane="right-left-1_2" pos="75" freq="30" file="hello.out" friendlyPos="x"/>
<e1Detector id="602" lane="right-left-1_2" pos="70" freq="30" file="hello.out" friendlyPos="x"/>
<e1Detector id="603" lane="right-left-1_2" pos="65" freq="30" file="hello.out" friendlyPos="x"/>
<e1Detector id="604" lane="right-left-1_2" pos="60" freq="30" file="hello.out" friendlyPos="x"/>
<e1Detector id="605" lane="right-left-1_2" pos="55" freq="30" file="hello.out" friendlyPos="x"/>
<e1Detector id="606" lane="right-left-1_2" pos="50" freq="30" file="hello.out" friendlyPos="x"/>
<e1Detector id="607" lane="right-left-1_2" pos="45" freq="30" file="hello.out" friendlyPos="x"/>
<e1Detector id="608" lane="right-left-1_2" pos="40" freq="30" file="hello.out" friendlyPos="x"/>
<e1Detector id="609" lane="right-left-1_2" pos="35" freq="30" file="hello.out" friendlyPos="x"/>
<e1Detector id="610" lane="right-left-1_2" pos="30" freq="30" file="hello.out" friendlyPos="x"/>
<e1Detector id="611" lane="right-left-1_2" pos="25" freq="30" file="hello.out" friendlyPos="x"/>
<e1Detector id="612" lane="right-left-1_2" pos="20" freq="30" file="hello.out" friendlyPos="x"/>
<e1Detector id="613" lane="right-left-1_2" pos="15" freq="30" file="hello.out" friendlyPos="x"/>
<e1Detector id="614" lane="right-left-1_2" pos="10" freq="30" file="hello.out" friendlyPos="x"/>
<e1Detector id="615" lane="right-left-1_2" pos="5" freq="30" file="hello.out" friendlyPos="x"/>
<e1Detector id="700" lane="right-left-1_3" pos="80" freq="30" file="hello.out" friendlyPos="x"/>
<e1Detector id="701" lane="right-left-1_3" pos="75" freq="30" file="hello.out" friendlyPos="x"/>
<e1Detector id="702" lane="right-left-1_3" pos="70" freq="30" file="hello.out" friendlyPos="x"/>
<e1Detector id="703" lane="right-left-1_3" pos="65" freq="30" file="hello.out" friendlyPos="x"/>
<e1Detector id="704" lane="right-left-1_3" pos="60" freq="30" file="hello.out" friendlyPos="x"/>
<e1Detector id="705" lane="right-left-1_3" pos="55" freq="30" file="hello.out" friendlyPos="x"/>
<e1Detector id="706" lane="right-left-1_3" pos="50" freq="30" file="hello.out" friendlyPos="x"/>
<e1Detector id="707" lane="right-left-1_3" pos="45" freq="30" file="hello.out" friendlyPos="x"/>
<e1Detector id="708" lane="right-left-1_3" pos="40" freq="30" file="hello.out" friendlyPos="x"/>
<e1Detector id="709" lane="right-left-1_3" pos="35" freq="30" file="hello.out" friendlyPos="x"/>
<e1Detector id="710" lane="right-left-1_3" pos="30" freq="30" file="hello.out" friendlyPos="x"/>
<e1Detector id="711" lane="right-left-1_3" pos="25" freq="30" file="hello.out" friendlyPos="x"/>
<e1Detector id="712" lane="right-left-1_3" pos="20" freq="30" file="hello.out" friendlyPos="x"/>
<e1Detector id="713" lane="right-left-1_3" pos="15" freq="30" file="hello.out" friendlyPos="x"/>
<e1Detector id="714" lane="right-left-1_3" pos="10" freq="30" file="hello.out" friendlyPos="x"/>
<e1Detector id="715" lane="right-left-1_3" pos="5" freq="30" file="hello.out" friendlyPos="x"/>
<e1Detector id="800" lane="up-down-1_0" pos="80" freq="30" file="hello.out" friendlyPos="x"/>
<e1Detector id="801" lane="up-down-1_0" pos="75" freq="30" file="hello.out" friendlyPos="x"/>
<e1Detector id="802" lane="up-down-1_0" pos="70" freq="30" file="hello.out" friendlyPos="x"/>
<e1Detector id="803" lane="up-down-1_0" pos="65" freq="30" file="hello.out" friendlyPos="x"/>
<e1Detector id="804" lane="up-down-1_0" pos="60" freq="30" file="hello.out" friendlyPos="x"/>
<e1Detector id="805" lane="up-down-1_0" pos="55" freq="30" file="hello.out" friendlyPos="x"/>
<e1Detector id="806" lane="up-down-1_0" pos="50" freq="30" file="hello.out" friendlyPos="x"/>
<e1Detector id="807" lane="up-down-1_0" pos="45" freq="30" file="hello.out" friendlyPos="x"/>
<e1Detector id="808" lane="up-down-1_0" pos="40" freq="30" file="hello.out" friendlyPos="x"/>
<e1Detector id="809" lane="up-down-1_0" pos="35" freq="30" file="hello.out" friendlyPos="x"/>
<e1Detector id="810" lane="up-down-1_0" pos="30" freq="30" file="hello.out" friendlyPos="x"/>
<e1Detector id="811" lane="up-down-1_0" pos="25" freq="30" file="hello.out" friendlyPos="x"/>
<e1Detector id="812" lane="up-down-1_0" pos="20" freq="30" file="hello.out" friendlyPos="x"/>
<e1Detector id="813" lane="up-down-1_0" pos="15" freq="30" file="hello.out" friendlyPos="x"/>
<e1Detector id="814" lane="up-down-1_0" pos="10" freq="30" file="hello.out" friendlyPos="x"/>
<e1Detector id="815" lane="up-down-1_0" pos="5" freq="30" file="hello.out" friendlyPos="x"/>
<e1Detector id="900" lane="up-down-1_1" pos="80" freq="30" file="hello.out" friendlyPos="x"/>
<e1Detector id="901" lane="up-down-1_1" pos="75" freq="30" file="hello.out" friendlyPos="x"/>
<e1Detector id="902" lane="up-down-1_1" pos="70" freq="30" file="hello.out" friendlyPos="x"/>
<e1Detector id="903" lane="up-down-1_1" pos="65" freq="30" file="hello.out" friendlyPos="x"/>
<e1Detector id="904" lane="up-down-1_1" pos="60" freq="30" file="hello.out" friendlyPos="x"/>
<e1Detector id="905" lane="up-down-1_1" pos="55" freq="30" file="hello.out" friendlyPos="x"/>
<e1Detector id="906" lane="up-down-1_1" pos="50" freq="30" file="hello.out" friendlyPos="x"/>
<e1Detector id="907" lane="up-down-1_1" pos="45" freq="30" file="hello.out" friendlyPos="x"/>
<e1Detector id="908" lane="up-down-1_1" pos="40" freq="30" file="hello.out" friendlyPos="x"/>
<e1Detector id="909" lane="up-down-1_1" pos="35" freq="30" file="hello.out" friendlyPos="x"/>
<e1Detector id="910" lane="up-down-1_1" pos="30" freq="30" file="hello.out" friendlyPos="x"/>
<e1Detector id="911" lane="up-down-1_1" pos="25" freq="30" file="hello.out" friendlyPos="x"/>
<e1Detector id="912" lane="up-down-1_1" pos="20" freq="30" file="hello.out" friendlyPos="x"/>
<e1Detector id="913" lane="up-down-1_1" pos="15" freq="30" file="hello.out" friendlyPos="x"/>
<e1Detector id="914" lane="up-down-1_1" pos="10" freq="30" file="hello.out" friendlyPos="x"/>
<e1Detector id="915" lane="up-down-1_1" pos="5" freq="30" file="hello.out" friendlyPos="x"/>
<e1Detector id="1000" lane="up-down-1_2" pos="80" freq="30" file="hello.out" friendlyPos="x"/>
<e1Detector id="1001" lane="up-down-1_2" pos="75" freq="30" file="hello.out" friendlyPos="x"/>
<e1Detector id="1002" lane="up-down-1_2" pos="70" freq="30" file="hello.out" friendlyPos="x"/>
<e1Detector id="1003" lane="up-down-1_2" pos="65" freq="30" file="hello.out" friendlyPos="x"/>
<e1Detector id="1004" lane="up-down-1_2" pos="60" freq="30" file="hello.out" friendlyPos="x"/>
<e1Detector id="1005" lane="up-down-1_2" pos="55" freq="30" file="hello.out" friendlyPos="x"/>
<e1Detector id="1006" lane="up-down-1_2" pos="50" freq="30" file="hello.out" friendlyPos="x"/>
<e1Detector id="1007" lane="up-down-1_2" pos="45" freq="30" file="hello.out" friendlyPos="x"/>
<e1Detector id="1008" lane="up-down-1_2" pos="40" freq="30" file="hello.out" friendlyPos="x"/>
<e1Detector id="1009" lane="up-down-1_2" pos="35" freq="30" file="hello.out" friendlyPos="x"/>
<e1Detector id="1010" lane="up-down-1_2" pos="30" freq="30" file="hello.out" friendlyPos="x"/>
<e1Detector id="1011" lane="up-down-1_2" pos="25" freq="30" file="hello.out" friendlyPos="x"/>
<e1Detector id="1012" lane="up-down-1_2" pos="20" freq="30" file="hello.out" friendlyPos="x"/>
<e1Detector id="1013" lane="up-down-1_2" pos="15" freq="30" file="hello.out" friendlyPos="x"/>
<e1Detector id="1014" lane="up-down-1_2" pos="10" freq="30" file="hello.out" friendlyPos="x"/>
<e1Detector id="1015" lane="up-down-1_2" pos="5" freq="30" file="hello.out" friendlyPos="x"/>
<e1Detector id="1100" lane="up-down-1_3" pos="80" freq="30" file="hello.out" friendlyPos="x"/>
<e1Detector id="1101" lane="up-down-1_3" pos="75" freq="30" file="hello.out" friendlyPos="x"/>
<e1Detector id="1102" lane="up-down-1_3" pos="70" freq="30" file="hello.out" friendlyPos="x"/>
<e1Detector id="1103" lane="up-down-1_3" pos="65" freq="30" file="hello.out" friendlyPos="x"/>
<e1Detector id="1104" lane="up-down-1_3" pos="60" freq="30" file="hello.out" friendlyPos="x"/>
<e1Detector id="1105" lane="up-down-1_3" pos="55" freq="30" file="hello.out" friendlyPos="x"/>
<e1Detector id="1106" lane="up-down-1_3" pos="50" freq="30" file="hello.out" friendlyPos="x"/>
<e1Detector id="1107" lane="up-down-1_3" pos="45" freq="30" file="hello.out" friendlyPos="x"/>
<e1Detector id="1108" lane="up-down-1_3" pos="40" freq="30" file="hello.out" friendlyPos="x"/>
<e1Detector id="1109" lane="up-down-1_3" pos="35" freq="30" file="hello.out" friendlyPos="x"/>
<e1Detector id="1110" lane="up-down-1_3" pos="30" freq="30" file="hello.out" friendlyPos="x"/>
<e1Detector id="1111" lane="up-down-1_3" pos="25" freq="30" file="hello.out" friendlyPos="x"/>
<e1Detector id="1112" lane="up-down-1_3" pos="20" freq="30" file="hello.out" friendlyPos="x"/>
<e1Detector id="1113" lane="up-down-1_3" pos="15" freq="30" file="hello.out" friendlyPos="x"/>
<e1Detector id="1114" lane="up-down-1_3" pos="10" freq="30" file="hello.out" friendlyPos="x"/>
<e1Detector id="1115" lane="up-down-1_3" pos="5" freq="30" file="hello.out" friendlyPos="x"/>
<e1Detector id="1200" lane="down-up-1_0" pos="80" freq="30" file="hello.out" friendlyPos="x"/>
<e1Detector id="1201" lane="down-up-1_0" pos="75" freq="30" file="hello.out" friendlyPos="x"/>
<e1Detector id="1202" lane="down-up-1_0" pos="70" freq="30" file="hello.out" friendlyPos="x"/>
<e1Detector id="1203" lane="down-up-1_0" pos="65" freq="30" file="hello.out" friendlyPos="x"/>
<e1Detector id="1204" lane="down-up-1_0" pos="60" freq="30" file="hello.out" friendlyPos="x"/>
<e1Detector id="1205" lane="down-up-1_0" pos="55" freq="30" file="hello.out" friendlyPos="x"/>
<e1Detector id="1206" lane="down-up-1_0" pos="50" freq="30" file="hello.out" friendlyPos="x"/>
<e1Detector id="1207" lane="down-up-1_0" pos="45" freq="30" file="hello.out" friendlyPos="x"/>
<e1Detector id="1208" lane="down-up-1_0" pos="40" freq="30" file="hello.out" friendlyPos="x"/>
<e1Detector id="1209" lane="down-up-1_0" pos="35" freq="30" file="hello.out" friendlyPos="x"/>
<e1Detector id="1210" lane="down-up-1_0" pos="30" freq="30" file="hello.out" friendlyPos="x"/>
<e1Detector id="1211" lane="down-up-1_0" pos="25" freq="30" file="hello.out" friendlyPos="x"/>
<e1Detector id="1212" lane="down-up-1_0" pos="20" freq="30" file="hello.out" friendlyPos="x"/>
<e1Detector id="1213" lane="down-up-1_0" pos="15" freq="30" file="hello.out" friendlyPos="x"/>
<e1Detector id="1214" lane="down-up-1_0" pos="10" freq="30" file="hello.out" friendlyPos="x"/>
<e1Detector id="1215" lane="down-up-1_0" pos="5" freq="30" file="hello.out" friendlyPos="x"/>
<e1Detector id="1300" lane="down-up-1_1" pos="80" freq="30" file="hello.out" friendlyPos="x"/>
<e1Detector id="1301" lane="down-up-1_1" pos="75" freq="30" file="hello.out" friendlyPos="x"/>
<e1Detector id="1302" lane="down-up-1_1" pos="70" freq="30" file="hello.out" friendlyPos="x"/>
<e1Detector id="1303" lane="down-up-1_1" pos="65" freq="30" file="hello.out" friendlyPos="x"/>
<e1Detector id="1304" lane="down-up-1_1" pos="60" freq="30" file="hello.out" friendlyPos="x"/>
<e1Detector id="1305" lane="down-up-1_1" pos="55" freq="30" file="hello.out" friendlyPos="x"/>
<e1Detector id="1306" lane="down-up-1_1" pos="50" freq="30" file="hello.out" friendlyPos="x"/>
<e1Detector id="1307" lane="down-up-1_1" pos="45" freq="30" file="hello.out" friendlyPos="x"/>
<e1Detector id="1308" lane="down-up-1_1" pos="40" freq="30" file="hello.out" friendlyPos="x"/>
<e1Detector id="1309" lane="down-up-1_1" pos="35" freq="30" file="hello.out" friendlyPos="x"/>
<e1Detector id="1310" lane="down-up-1_1" pos="30" freq="30" file="hello.out" friendlyPos="x"/>
<e1Detector id="1311" lane="down-up-1_1" pos="25" freq="30" file="hello.out" friendlyPos="x"/>
<e1Detector id="1312" lane="down-up-1_1" pos="20" freq="30" file="hello.out" friendlyPos="x"/>
<e1Detector id="1313" lane="down-up-1_1" pos="15" freq="30" file="hello.out" friendlyPos="x"/>
<e1Detector id="1314" lane="down-up-1_1" pos="10" freq="30" file="hello.out" friendlyPos="x"/>
<e1Detector id="1315" lane="down-up-1_1" pos="5" freq="30" file="hello.out" friendlyPos="x"/>
<e1Detector id="1400" lane="down-up-1_2" pos="80" freq="30" file="hello.out" friendlyPos="x"/>
<e1Detector id="1401" lane="down-up-1_2" pos="75" freq="30" file="hello.out" friendlyPos="x"/>
<e1Detector id="1402" lane="down-up-1_2" pos="70" freq="30" file="hello.out" friendlyPos="x"/>
<e1Detector id="1403" lane="down-up-1_2" pos="65" freq="30" file="hello.out" friendlyPos="x"/>
<e1Detector id="1404" lane="down-up-1_2" pos="60" freq="30" file="hello.out" friendlyPos="x"/>
<e1Detector id="1405" lane="down-up-1_2" pos="55" freq="30" file="hello.out" friendlyPos="x"/>
<e1Detector id="1406" lane="down-up-1_2" pos="50" freq="30" file="hello.out" friendlyPos="x"/>
<e1Detector id="1407" lane="down-up-1_2" pos="45" freq="30" file="hello.out" friendlyPos="x"/>
<e1Detector id="1408" lane="down-up-1_2" pos="40" freq="30" file="hello.out" friendlyPos="x"/>
<e1Detector id="1409" lane="down-up-1_2" pos="35" freq="30" file="hello.out" friendlyPos="x"/>
<e1Detector id="1410" lane="down-up-1_2" pos="30" freq="30" file="hello.out" friendlyPos="x"/>
<e1Detector id="1411" lane="down-up-1_2" pos="25" freq="30" file="hello.out" friendlyPos="x"/>
<e1Detector id="1412" lane="down-up-1_2" pos="20" freq="30" file="hello.out" friendlyPos="x"/>
<e1Detector id="1413" lane="down-up-1_2" pos="15" freq="30" file="hello.out" friendlyPos="x"/>
<e1Detector id="1414" lane="down-up-1_2" pos="10" freq="30" file="hello.out" friendlyPos="x"/>
<e1Detector id="1415" lane="down-up-1_2" pos="5" freq="30" file="hello.out" friendlyPos="x"/>
<e1Detector id="1500" lane="down-up-1_3" pos="80" freq="30" file="hello.out" friendlyPos="x"/>
<e1Detector id="1501" lane="down-up-1_3" pos="75" freq="30" file="hello.out" friendlyPos="x"/>
<e1Detector id="1502" lane="down-up-1_3" pos="70" freq="30" file="hello.out" friendlyPos="x"/>
<e1Detector id="1503" lane="down-up-1_3" pos="65" freq="30" file="hello.out" friendlyPos="x"/>
<e1Detector id="1504" lane="down-up-1_3" pos="60" freq="30" file="hello.out" friendlyPos="x"/>
<e1Detector id="1505" lane="down-up-1_3" pos="55" freq="30" file="hello.out" friendlyPos="x"/>
<e1Detector id="1506" lane="down-up-1_3" pos="50" freq="30" file="hello.out" friendlyPos="x"/>
<e1Detector id="1507" lane="down-up-1_3" pos="45" freq="30" file="hello.out" friendlyPos="x"/>
<e1Detector id="1508" lane="down-up-1_3" pos="40" freq="30" file="hello.out" friendlyPos="x"/>
<e1Detector id="1509" lane="down-up-1_3" pos="35" freq="30" file="hello.out" friendlyPos="x"/>
<e1Detector id="1510" lane="down-up-1_3" pos="30" freq="30" file="hello.out" friendlyPos="x"/>
<e1Detector id="1511" lane="down-up-1_3" pos="25" freq="30" file="hello.out" friendlyPos="x"/>
<e1Detector id="1512" lane="down-up-1_3" pos="20" freq="30" file="hello.out" friendlyPos="x"/>
<e1Detector id="1513" lane="down-up-1_3" pos="15" freq="30" file="hello.out" friendlyPos="x"/>
<e1Detector id="1514" lane="down-up-1_3" pos="10" freq="30" file="hello.out" friendlyPos="x"/>
<e1Detector id="1515" lane="down-up-1_3" pos="5" freq="30" file="hello.out" friendlyPos="x"/>
</additional>
