<nodes>
    <node id="1" x="-100.0" y="0.0" />
    <!-- this is the junction -->
    <node id="2" x="0.0" y="0.0" type="traffic_light" />
    <node id="3" x="+100.0" y="0.0" />
    <node id="4" x="0.0" y="-100.0" />
    <node id="5" x="0.0" y="+100.0" />
</nodes>
